YMZ


 28 30  0  0  0  0  0  0  0  0999 V2000
   -1.2102    3.7274   11.8256 C   0  0  0  0  0  0  0  0  0  0  0  0
   -0.8578    4.8733   12.4695 C   0  0  0  0  0  0  0  0  0  0  0  0
   -1.6925    5.4445   13.4282 C   0  0  0  0  0  0  0  0  0  0  0  0
   -2.8843    4.8712   13.7483 C   0  0  0  0  0  0  0  0  0  0  0  0
   -3.2809    3.6879   13.1041 C   0  0  0  0  0  0  0  0  0  0  0  0
   -2.4362    3.1080   12.1248 C   0  0  0  0  0  0  0  0  0  0  0  0
   -2.8088    1.9822   11.5071 N   0  0  0  0  0  0  0  0  0  0  0  0
   -3.9479    1.3952   11.7887 C   0  0  0  0  0  0  0  0  0  0  0  0
   -4.8226    1.9124   12.7404 C   0  0  0  0  0  0  0  0  0  0  0  0
   -4.5051    3.0629   13.4056 C   0  0  0  0  0  0  0  0  0  0  0  0
   -0.4192    1.7350   10.8060 F   0  0  0  0  0  0  0  0  0  0  0  0
   -0.2916    3.1280   10.7919 C   0  0  0  0  0  0  0  0  0  0  0  0
    1.0304    3.4792   11.0836 F   0  0  0  0  0  0  0  0  0  0  0  0
   -0.6338    3.6151    9.5253 F   0  0  0  0  0  0  0  0  0  0  0  0
   -4.3184    0.1276   11.0622 C   0  0  0  0  0  0  0  0  0  0  0  0
   -4.2390   -0.9546   11.9448 F   0  0  0  0  0  0  0  0  0  0  0  0
   -5.6251    0.2358   10.5731 F   0  0  0  0  0  0  0  0  0  0  0  0
   -3.4362   -0.0738    9.9958 F   0  0  0  0  0  0  0  0  0  0  0  0
   -5.4386    3.6448   14.4359 C   0  0  0  0  0  0  0  0  0  0  0  0
   -6.7681    3.6703   13.9141 O   0  0  0  0  0  0  0  0  0  0  0  0
   -7.1136    2.7997   13.6758 H   0  0  0  0  0  0  0  0  0  0  0  0
   -5.4023    2.7831   15.6993 C   0  0  0  0  0  0  0  0  0  0  0  0
   -4.7844    1.4217   15.3702 C   0  0  0  0  0  0  0  0  0  0  0  0
   -4.7680    0.5554   16.6320 C   0  0  0  0  0  0  0  0  0  0  0  0
   -6.1979    0.4126   17.1632 C   0  0  0  0  0  0  0  0  0  0  0  0
   -6.7744    1.8034   17.4402 C   0  0  0  0  0  0  0  0  0  0  0  0
   -6.7688    2.5925   16.2023 N   0  0  0  0  0  0  0  0  0  0  0  0
   -7.3568    2.1688   15.4998 H   0  0  0  0  0  0  0  0  0  0  0  0
 12 11  1  0
 12 13  1  0
 12 14  1  0
  1 12  1  0
  2  1  2  0
  3  2  1  0
  4  5  1  0
  4  3  2  0
  5  6  1  0
  6  7  2  0
  6  1  1  0
  8  7  1  0
  8 15  1  0
 15 18  1  0
 16 15  1  0
 17 15  1  0
  9  8  2  0
 10  5  2  0
 10  9  1  0
 19 20  1  0
 19 10  1  0
 20 21  1  0
 22 27  1  0
 22 19  1  0
 23 22  1  0
 24 25  1  0
 24 23  1  0
 25 26  1  0
 26 27  1  0
 27 28  1  0
M  END
> <minimizedAffinity>
-7.62874

$$$$
